/*--------------------------------*- C++ -*----------------------------------*\
| =========                 |                                                 |
| \\      /  F ield         | OpenFOAM: The Open Source CFD Toolbox           |
|  \\    /   O peration     | Version:  v1912                                 |
|   \\  /    A nd           | Website:  www.openfoam.com                      |
|    \\/     M anipulation  |                                                 |
\*---------------------------------------------------------------------------*/
FoamFile
{
    version     2.0;
    format      ascii;
    class       polyBoundaryMesh;
    location    "constant/fluid/polyMesh";
    object      boundary;
}
// * * * * * * * * * * * * * * * * * * * * * * * * * * * * * * * * * * * * * //

23
(
    frontAndBack
    {
        type            empty;
        physicalType    empty;
        inGroups        1(empty);
        nFaces          25064;
        startFace       49117;
    }
    wallOuter
    {
        type            wall;
        physicalType    wall;
        inGroups        1(wall);
        nFaces          596;
        startFace       74181;
    }
    Inlet
    {
        type            patch;
        physicalType    patch;
        nFaces          29;
        startFace       74777;
    }
    outlet
    {
        type            patch;
        physicalType    patch;
        nFaces          29;
        startFace       74806;
    }
    defaultFaces
    {
        type            wall;
        inGroups        1(wall);
        nFaces          25064;
        startFace       74835;
    }
    fluid_to_solid_11
    {
        type            mappedWall;
        inGroups        1(wall);
        nFaces          76;
        startFace       99899;
        sampleMode      nearestPatchFace;
        sampleRegion    solid_11;
        samplePatch     solid_11_to_fluid;
    }
    fluid_to_solid_5
    {
        type            mappedWall;
        inGroups        1(wall);
        nFaces          76;
        startFace       99975;
        sampleMode      nearestPatchFace;
        sampleRegion    solid_5;
        samplePatch     solid_5_to_fluid;
    }
    fluid_to_solid_3
    {
        type            mappedWall;
        inGroups        1(wall);
        nFaces          76;
        startFace       100051;
        sampleMode      nearestPatchFace;
        sampleRegion    solid_3;
        samplePatch     solid_3_to_fluid;
    }
    fluid_to_solid_6
    {
        type            mappedWall;
        inGroups        1(wall);
        nFaces          76;
        startFace       100127;
        sampleMode      nearestPatchFace;
        sampleRegion    solid_6;
        samplePatch     solid_6_to_fluid;
    }
    fluid_to_solid_1
    {
        type            mappedWall;
        inGroups        1(wall);
        nFaces          76;
        startFace       100203;
        sampleMode      nearestPatchFace;
        sampleRegion    solid_1;
        samplePatch     solid_1_to_fluid;
    }
    fluid_to_solid_18
    {
        type            mappedWall;
        inGroups        1(wall);
        nFaces          76;
        startFace       100279;
        sampleMode      nearestPatchFace;
        sampleRegion    solid_18;
        samplePatch     solid_18_to_fluid;
    }
    fluid_to_solid_14
    {
        type            mappedWall;
        inGroups        1(wall);
        nFaces          76;
        startFace       100355;
        sampleMode      nearestPatchFace;
        sampleRegion    solid_14;
        samplePatch     solid_14_to_fluid;
    }
    fluid_to_solid_16
    {
        type            mappedWall;
        inGroups        1(wall);
        nFaces          76;
        startFace       100431;
        sampleMode      nearestPatchFace;
        sampleRegion    solid_16;
        samplePatch     solid_16_to_fluid;
    }
    fluid_to_solid_10
    {
        type            mappedWall;
        inGroups        1(wall);
        nFaces          76;
        startFace       100507;
        sampleMode      nearestPatchFace;
        sampleRegion    solid_10;
        samplePatch     solid_10_to_fluid;
    }
    fluid_to_solid_13
    {
        type            mappedWall;
        inGroups        1(wall);
        nFaces          76;
        startFace       100583;
        sampleMode      nearestPatchFace;
        sampleRegion    solid_13;
        samplePatch     solid_13_to_fluid;
    }
    fluid_to_solid_12
    {
        type            mappedWall;
        inGroups        1(wall);
        nFaces          76;
        startFace       100659;
        sampleMode      nearestPatchFace;
        sampleRegion    solid_12;
        samplePatch     solid_12_to_fluid;
    }
    fluid_to_solid_4
    {
        type            mappedWall;
        inGroups        1(wall);
        nFaces          76;
        startFace       100735;
        sampleMode      nearestPatchFace;
        sampleRegion    solid_4;
        samplePatch     solid_4_to_fluid;
    }
    fluid_to_solid_7
    {
        type            mappedWall;
        inGroups        1(wall);
        nFaces          76;
        startFace       100811;
        sampleMode      nearestPatchFace;
        sampleRegion    solid_7;
        samplePatch     solid_7_to_fluid;
    }
    fluid_to_solid_15
    {
        type            mappedWall;
        inGroups        1(wall);
        nFaces          76;
        startFace       100887;
        sampleMode      nearestPatchFace;
        sampleRegion    solid_15;
        samplePatch     solid_15_to_fluid;
    }
    fluid_to_solid_8
    {
        type            mappedWall;
        inGroups        1(wall);
        nFaces          76;
        startFace       100963;
        sampleMode      nearestPatchFace;
        sampleRegion    solid_8;
        samplePatch     solid_8_to_fluid;
    }
    fluid_to_solid_2
    {
        type            mappedWall;
        inGroups        1(wall);
        nFaces          76;
        startFace       101039;
        sampleMode      nearestPatchFace;
        sampleRegion    solid_2;
        samplePatch     solid_2_to_fluid;
    }
    fluid_to_solid_17
    {
        type            mappedWall;
        inGroups        1(wall);
        nFaces          76;
        startFace       101115;
        sampleMode      nearestPatchFace;
        sampleRegion    solid_17;
        samplePatch     solid_17_to_fluid;
    }
    fluid_to_solid_9
    {
        type            mappedWall;
        inGroups        1(wall);
        nFaces          76;
        startFace       101191;
        sampleMode      nearestPatchFace;
        sampleRegion    solid_9;
        samplePatch     solid_9_to_fluid;
    }
)

// ************************************************************************* //
