/*--------------------------------*- C++ -*----------------------------------*\
| =========                 |                                                 |
| \\      /  F ield         | OpenFOAM: The Open Source CFD Toolbox           |
|  \\    /   O peration     | Version:  v1912                                 |
|   \\  /    A nd           | Website:  www.openfoam.com                      |
|    \\/     M anipulation  |                                                 |
\*---------------------------------------------------------------------------*/
FoamFile
{
    version     2.0;
    format      ascii;
    class       polyBoundaryMesh;
    location    "constant/solid_14/polyMesh";
    object      boundary;
}
// * * * * * * * * * * * * * * * * * * * * * * * * * * * * * * * * * * * * * //

4
(
    frondAndBackSolid
    {
        type            empty;
        physicalType    empty;
        inGroups        1(empty);
        nFaces          211;
        startFace       363;
    }
    heatWall
    {
        type            wall;
        physicalType    wall;
        inGroups        1(wall);
        nFaces          38;
        startFace       574;
    }
    defaultFaces
    {
        type            wall;
        inGroups        1(wall);
        nFaces          215;
        startFace       612;
    }
    solid_14_to_fluid
    {
        type            mappedWall;
        inGroups        1(wall);
        nFaces          76;
        startFace       827;
        sampleMode      nearestPatchFace;
        sampleRegion    fluid;
        samplePatch     fluid_to_solid_14;
    }
)

// ************************************************************************* //
