/*--------------------------------*- C++ -*----------------------------------*\
| =========                 |                                                 |
| \\      /  F ield         | OpenFOAM: The Open Source CFD Toolbox           |
|  \\    /   O peration     | Version:  v1912                                 |
|   \\  /    A nd           | Website:  www.openfoam.com                      |
|    \\/     M anipulation  |                                                 |
\*---------------------------------------------------------------------------*/
FoamFile
{
    version     2.0;
    format      ascii;
    class       dictionary;
    object      changeDictionaryDict;
}
// * * * * * * * * * * * * * * * * * * * * * * * * * * * * * * * * * * * * * //


U
{
    internalField   uniform (0.1 0 0);

    boundaryField
    {

        Inlet
        {
            type            fixedValue;
            value           uniform (0.1 0 0);
        }
        outlet
        {
            type            inletOutlet;
            inletValue      uniform (0 0 0);
            value           uniform (0.1 0 0);
        }

        frontAndBack
        {
            type            empty;
        }

        wallOuter
        {
            type            fixedValue;
            value           uniform (0 0 0);
        }

        defaultFaces
        {
            type            fixedValue;
            value           uniform (0 0 0);
        }

        "fluid_to.*"
        {
            type            fixedValue;
            value           uniform (0 0 0);
        }

    }
}

T
{
    internalField   uniform 300;

    boundaryField
    {


        wallOuter
        {
            type            zeroGradient;
        }

        defaultFaces
        {
            type            zeroGradient;
        }

        Inlet
        {
            type            fixedValue;
            value           uniform 300;
        }
        outlet
        {
            type            inletOutlet;
            inletValue      uniform 300;
            value           uniform 300;
        }

        "fluid_to_.*"
        {
            type            compressible::turbulentTemperatureCoupledBaffleMixed;
            Tnbr            T;
            kappaMethod     fluidThermo;
            value           uniform 300;
        }

        frontAndBack
        {
            type            empty;
        }
    }
}

alphat
{
    internalField   uniform 0;

    boundaryField
    {

        wallOuter
        {
        type            compressible::alphatWallFunction;
        Prt             0.85;
        value           $internalField;
        }

        defaultFaces
        {
        type            compressible::alphatWallFunction;
        Prt             0.85;
        value           $internalField;
        }

        "fluid_to_.*"
        {
        type            compressible::alphatWallFunction;
        Prt             0.85;
        value           $internalField;
        }

        Inlet
        {
            type            fixedValue;
            value           uniform 0;
        }
        outlet
        {
            type            inletOutlet;
            inletValue      uniform 0;
            value           uniform 0;
        }

        frontAndBack
        {
            type            empty;
        }
    }
}


epsilon
{
    internalField   uniform 0.01;

    boundaryField
    {
        wallOuter
        {
            type            epsilonWallFunction;
            value           uniform 0.01;
        }

        defaultFaces
        {
            type            epsilonWallFunction;
            value           uniform 0.01;
        }

        "fluid_to_.*"
        {
            type            epsilonWallFunction;
            value           uniform 0.01;
        }

        Inlet
        {
            type            fixedValue;
            value           uniform 0.01;
        }
        outlet
        {
            type            inletOutlet;
            inletValue      uniform 0.01;
            value           uniform 0.01;
        }

        frontAndBack
        {
            type            empty;
        }
    }
}

nut
{
    internalField   uniform 0;

    boundaryField
    {
        wallOuter
        {
            type            nutkWallFunction;
            value           uniform 0;
        }

        defaultFaces
        {
            type            nutkWallFunction;
            value           uniform 0;
        }

        "fluid_to_.*"
        {
            type            nutkWallFunction;
            value           uniform 0;
        }

        Inlet
        {
            type            calculated;
            value           uniform 0;
        }
        outlet
        {
            type            inletOutlet;
            inletValue      uniform 0;
            value           uniform 0;
        }

        frontAndBack
        {
            type            empty;
        }
    }
}

k
{
    internalField   uniform 0.1;

    boundaryField
    {
        wallOuter
        {
            type            kqRWallFunction;
            value           uniform 0.1;
        }

        defaultFaces
        {
            type            kqRWallFunction;
            value           uniform 0.1;
        }

        "fluid_to_.*"
        {
            type            kqRWallFunction;
            value           uniform 0.1;
        }

        Inlet
        {
            type            fixedValue;
            value           uniform 0.1;
        }
        outlet
        {
            type            inletOutlet;
            inletValue      uniform 0.1;
            value           uniform 0.1;
        }

        frontAndBack
        {
            type            empty;
        }
    }
}

p_rgh
{
    internalField   uniform 1e5;

    boundaryField
    {
        wallOuter
        {
            type            fixedFluxPressure;
            value           uniform 1e5;
        }

        defaultFaces
        {
            type            fixedFluxPressure;
            value           uniform 1e5;
        }

        "fluid_to_.*"
        {
            type            fixedFluxPressure;
            value           uniform 1e5;
        }

        outlet
        {
            type            fixedValue;
            value           uniform 1e5;
        }

        Inlet
        {
            type            zeroGradient;
        }

        frontAndBack
        {
            type            empty;
        }
    }
}

p
{
    internalField   uniform 1e5;

    boundaryField
    {
        wallOuter
        {
            type            calculated;
            value           uniform 1e5;
        }

        defaultFaces
        {
            type            calculated;
            value           uniform 1e5;
        }

        "fluid_to_.*"
        {
            type            calculated;
            value           uniform 1e5;
        }

        outlet
        {
            type            calculated;
            value           uniform 1e5;
        }
        Inlet
        {
            type            zeroGradient;
        }

        frontAndBack
        {
            type            empty;
        }
    }
}

// ************************************************************************* //
