/*--------------------------------*- C++ -*----------------------------------*\
| =========                 |                                                 |
| \\      /  F ield         | OpenFOAM: The Open Source CFD Toolbox           |
|  \\    /   O peration     | Version:  v1912                                 |
|   \\  /    A nd           | Website:  www.openfoam.com                      |
|    \\/     M anipulation  |                                                 |
\*---------------------------------------------------------------------------*/
FoamFile
{
    version     2.0;
    format      ascii;
    class       polyBoundaryMesh;
    location    "constant/polyMesh";
    object      boundary;
}
// * * * * * * * * * * * * * * * * * * * * * * * * * * * * * * * * * * * * * //

8
(
    frontAndBack
    {
        type            empty;
        physicalType    empty;
        inGroups        1(empty);
        nFaces          2932;
        startFace       2776;
    }
    wallOuter
    {
        type            wall;
        physicalType    wall;
        inGroups        1(wall);
        nFaces          108;
        startFace       5708;
    }
    inlet
    {
        type            patch;
        physicalType    patch;
        nFaces          0;
        startFace       5816;
    }
    outlet
    {
        type            patch;
        physicalType    patch;
        nFaces          0;
        startFace       5816;
    }
    wallInner
    {
        type            wall;
        physicalType    wall;
        inGroups        1(wall);
        nFaces          126;
        startFace       5816;
    }
    procBoundary1to0
    {
        type            processor;
        inGroups        1(processor);
        nFaces          29;
        startFace       5942;
        matchTolerance  0.0001;
        transform       unknown;
        myProcNo        1;
        neighbProcNo    0;
    }
    procBoundary1to2
    {
        type            processor;
        inGroups        1(processor);
        nFaces          1;
        startFace       5971;
        matchTolerance  0.0001;
        transform       unknown;
        myProcNo        1;
        neighbProcNo    2;
    }
    procBoundary1to3
    {
        type            processor;
        inGroups        1(processor);
        nFaces          48;
        startFace       5972;
        matchTolerance  0.0001;
        transform       unknown;
        myProcNo        1;
        neighbProcNo    3;
    }
)

// ************************************************************************* //
