/*--------------------------------*- C++ -*----------------------------------*\
| =========                 |                                                 |
| \\      /  F ield         | OpenFOAM: The Open Source CFD Toolbox           |
|  \\    /   O peration     | Version:  v1912                                 |
|   \\  /    A nd           | Website:  www.openfoam.com                      |
|    \\/     M anipulation  |                                                 |
\*---------------------------------------------------------------------------*/
FoamFile
{
    version     2.0;
    format      ascii;
    class       polyBoundaryMesh;
    location    "constant/polyMesh";
    object      boundary;
}
// * * * * * * * * * * * * * * * * * * * * * * * * * * * * * * * * * * * * * //

7
(
    frontAndBack
    {
        type            patch;
        physicalType    patch;
        nFaces          17288;
        startFace       20947;
    }
    frondAndBackSolid
    {
        type            patch;
        physicalType    patch;
        nFaces          3876;
        startFace       38235;
    }
    wallOuter
    {
        type            patch;
        physicalType    patch;
        nFaces          396;
        startFace       42111;
    }
    inlet
    {
        type            patch;
        physicalType    patch;
        nFaces          19;
        startFace       42507;
    }
    outlet
    {
        type            patch;
        physicalType    patch;
        nFaces          19;
        startFace       42526;
    }
    wallInner
    {
        type            patch;
        physicalType    patch;
        nFaces          0;
        startFace       42545;
    }
    HeatWall
    {
        type            patch;
        physicalType    patch;
        nFaces          0;
        startFace       42545;
    }
)

// ************************************************************************* //
